<mxfile modified="2019-09-10T04:15:22.830Z" host="www.draw.io" agent="Mozilla/5.0 (Macintosh; Intel Mac OS X 10_14_5) AppleWebKit/537.36 (KHTML, like Gecko) Chrome/76.0.3809.132 Safari/537.36" etag="UV0QSsF-3EVJJ_X3Fu9W" version="11.2.8" type="device" pages="2"><diagram id="NmxqfQUm1OTjnyKwgBVT" name="WorkFlow">7VpLc6M4EP41rto5OCUkHuYYv3Zqq6YqlRwyc5SNjKkAcgAn9vz6lUACS8DY4xizO44vRi2pkbo/fa2WGKBJtPs7wZv1N+qRcACBtxug6QBCw4Q2++OSfSFxHKcQ+EngiUaV4Cn4SYQQCOk28EiqNMwoDbNgowqXNI7JMlNkOEnou9psRUP1rRvsk5rgaYnDuvQ58LJ1IXUBqORfSeCvxZstWRFh2VYI0jX26PuBCM0GaJJQmhVP0W5CQm47aZai37ylthxXQuLslA7P0ewZL15Gr/4u3G3oP1OIHoZCyxsOt2K+jw8TY/hIXrckzcTAs700RkK3sUe4QmOAxu/rICNPG7zkte/M/Uy2zqJQVKdZQl/IhIY0yXuj+XxsOYDViJeSJCO71tkYpY0YtgiNSJbsWRPRgXmg6CJgZThuUX6vnGQYQu36wEGmxIbAhV+qrmzHHoT5fsOUsGbKSRjw2VzWiK4zBWwJXcSItn1nKVZkZu3ZiqhmxZr9SOzd84XNSssQp2mwVE3GJp/sv7MCkIUfvMCmKorT3WHldC9LuyD7LnWw54NerFR14gXZpxgc8WocormATYBukyU5jp8MJz7Jji3ZuksPPGaBusOkLCEhzoI3dbhNXhRveKABh3C57JC67KANVBXFNEWvQzbSFUFHXb+urSoq7FBTlIOqnPb5OLPqqzUhOCM1tLHVlan4Skga/MSLvAHHwIaPMR+1NR5YUybBYeDHHJ4MBISt2zFfpQGLKfeiIgo8j/cfh3hBwjFevvg5Kxys81X++9U6FxFPjKQKNIfga19jraQA7kxbcY15EeQMoUbYSNVAV6uUdOLq0SelHKMUt1dOARqnuOdyimvp8cyEUnIlXnFvmFdG/fCKqTl96FyLWYx6FLkVapGp2DFqgVaf1GJriINnMothqIqQoynqmFXMhjyN+EHKWeAGiMVoAZGkAHAHbGSq24uP4ecK3FGPFANoh9x16QbHik/t1y0/JRgvC2vf84n5i78QAyUzIXs/4ACRj/YX/sz9AFY0zoYrHAXhvuhWNGEacbTJmyBmN644Tiljp1pFe5cwWJCE2ZbyoUY0pr/RNyJx+Iv2XFuaZ8RyHnmSPCxk+Tw2SVW5KNE41AwELatUqj1/qazKnnz+z08+pAsWiZTO3hg2v+KYwT+RtczhhY+KJrUl+LEMf3ZvjxlxdXJMUhJrf8ckTTHzE/c94j5H+Df2eBV0I+S68/ll0G3q6IZ1dLsNu4vuTq/MT3D/B8FtXAfa8/nUvRRx2zbQ0hpjVD+bdZrADToCt1R8i9mO+79IdxyVDm1Dg8LJ6Y52Vmfpp7xdpzvwptMdEzSDqEp3IJCIlJHvIvjRT1JMVUF3yZDZdO3zGTf7jpvwT4ibTSlPY9zsalNoNm0KbyNuymTvaNwsNs59xU1j5NRA4+oXB6cGT6RfZ4Caqq7D5y1fbpotSPpTbzfldD7Z5dj2ordLCAmGKiCdyy22fuBxfW5xbplb7F64xRjpN5yG7vUO+aX9noJvqHNzSttXm0gETehCUt9XHt3WX2d36z0+TFo3t6W4mGAne14AJhNwoW8h9R0Hqgimr4NQSZ0fikoiulQR5cdBTXN0KSNZGdZOi2S9RKVev7rRzopM/djw3LMipH+90xKQmOvx/qCZCAat47WQyoHIMTSUFhpPJD9WrD69LppX36+j2b8=</diagram><diagram id="xToFmgx7F9bCjlQAp4MC" name="Page-2">5Vxbc5s4FP41zGwf3AHE9RFsJ+l0MttJdrbbvnSwLdu02DiAc+mvXx0hYZCU2HHA6Zh96MoHcQQ61+8cEQ0NV4+XWbRZXqcznGimPnvU0EgzTcMyHfI/oDyVFNd1S8Iii2ds0o5wG//GjKgz6jae4bwxsUjTpIg3TeI0Xa/xtGjQoixLH5rT5mnSXHUTLbBEuJ1GiUz9Gs+KZUn1dX1Hv8LxYslWtvmFVcTnMkK+jGbpQ42ExhoaZmlalKPV4xAnsHd8W9Jvk4HrJffI/Y7Cu/zh8r+lOyiZXbzmluoNMrwujmZt+9/ublbZVzQ1vv34nf87HyQmu0W/j5It265hEsMqppOQpcJJRkYLGGnjCy0cap6njV0tDLTwAgaBp3nVJZ/tU/HE9z5Lt+sZhgcwCIuHZVzg2000hasPRNsIbVmsEnY5L7L0Fx6mSZrRu9HM9SdEGiicx0lSo8/n2JlO4ZnKh8dZgR8FYe/ZKqOSH9F7nK5wkT2R+xgXj23LE9+5j3ZJeNgpkGGwtZY15bG43jKdXVSsd4IhAyabV8jJkOQk7TVezwIwF/Jrna5xc2/L2Xgmmcpx+1TbB1uXt4HTMpxERXzfXFO1N2yFL2kMqsfFYCC7IYfKZjmLPN1mU8zuqqv+HkaGITAqomyBC4kRFVX12sdLD0nSG9+Tfb9e9NzOEPLf0dD0q+ub5Mv6Zjq/2sz/vvq+/jy9UThEKqpLssObc9l222n6N/7z3Ta9l94N+VZDCp5/pHcTGXXo3ZTSM/soPcew25GeyOjU0rNeJb1pEuV5PD0DARrIae67dXxy8VEQoXeYCMmmRk+1aRuYkD//yL60kNNI+cmgZNmqgtiygoxtyE/8EAZhCFmKqd98GRqDG3y3xXkhaRAJYEVTZzKcx7+jCZ0AMZC9O5lth5o9IpRoW6R5iSbhhiiJF2syTvAcWEFUjAnICxi5SCHc5iT6xuvFP/BjRFS7uxhq6GqR12OoqdBeU1CN1mKo01s71gWrMI+HCU2hmqJLaMuOhWXME1ixe5AVO9EKzGg9yTdUH0pwQqxq3dAk524LRY9wWiatYP7ZYvIXeFTyKuQBdUgV+dD5AGNgp4MfGDBLhrumRLFwVl2mGfQgL1NouL7JcHVxEk1/LWjGPRDWNW27Wk0Yf9g9LAdY1FHxVyN7Wb4dA19n+cYUwVxF61kCKz/z4n3z2CbyZI+t8lNteOzrnz8/LR+uwuvPP+62wfby2p48KKBmTzy2JUjCPRr47GHUXuqsFKACto4dLURQrQHn6mjekGVGPbAvoh9C9JQNzD2lffUV2SBfEIQIRw6HpvrLjDq2L1XOIttXG4bFTIYFZ9mWVvFsBveHSTTBSVjF5UbVDv57yb5Yg4s9iVYpfl2bnlfkZ+1O/6jrltsQlPU2PeJT0vk8x51IVoEpe2KalghW2qr6IdQNWEG2sI7RLlpR6ofXU/2w9KbHRU5Lrlti1LHr9hWu24Jelj8CH078tmdQSkD7WhYFoE4fnLl3ds5cUXkiIg50LfSprEdaMIY0mNcGdSpvTwtG0Nn0iQZYQLRgxkWMk9ktLihkpbBW7o9KZQtZj1ijdKi6xJdkfEYwCFw6h/wb0DnkqXWqoWQJVwtVtZIxonNMxRNKZZSzz/0N4cREFYxqbtNECr8pVthaS/4NuefejxAigmJLxFcHV0OtPYy6RteqxoNHYwg1XmKMPviV8YwAbGrEF9TjkCmGFhg7H6B2IeSSTdnoWhA23NOnUe0Mhg3Oi6wz9jXfp7c4mu/BWkrXQgaetWPgczdhyE9R94eVT6KsAkQpOiAc4GkAsQehsbTZF2JjVVJgKjl4Y2zkJtPsBPKI233kNBQItxdOSuy0WEc3X01fAFRWR81XT1qo5earWkMUSIi4IvKOxGGU3tBz93Yt9jQhWuszUE/M8rsLcJzgLMnY574OfpMESq/lhb1rR4h6Wu8/eAqT66w+aihAWj+8j5DZ2MemSGKuJTHqOEXiry52dUmKZDA3oYTZxHEQxBM4tckO0CHhceAWkt70Id/w9+QbhmE2M4NW1G9gNk+98mpX9/kG3xlBX4gieBSzkzzXHxL0TccOw+8hAp8NKmPSTPmVsYa62wMiDaR2PLpYfi3S6IpIoyoWlDUHEg3hUcc0yDyPAJ4JOwzm+yoLkYtVpwH+f4wNtdATlBzkH5ycc2vvXXiUmxS2fXSAbDYPbLHb0VGTwnZPkJubihIT8z1jittpgqssE4hlRloPDYMbHM2e1PUKsQrhQYkjoB+JBHQFObVuFC9dWkywYTK4SDKw4QHPOM/mLkj42MHmn8/U825LYU1iP621vNvs61FNsbvlHIv6xe6WxKjrvFt9MsG/AKsa0+pgYL5QIFS4gPNKFV7Q+xO2virGzWg2cDjhBElEXzvZ4iEk59hDSJ5o62+u77UuY1WzW0RV1NIpIgdK2Ro4JDMgtyASqMvMYNfWpMwCl+UB3pAW3s7x7PLh2O38UxkLPWMK9S5rVx+dKFWfP5D4uaxw2PzAr5sd2rnTz+4zZ/cdv7dVi62XH9yKkeToTzZFRh1+sqkWX18rE+LGuyJGO1SCIhKRGL17UoHk4gJvrtmajwDiA74PNF5hOW/sUKr8C9gBuYZwTvVtGtc9NED9/T5BrC8ebcdifdE98Augt9YXXfsE9UWkOgBVHaK14fyk77GaAvEIFdI4/0QYmYL7dlhJrabAzknz4L7CfPmPH3jHFvWQt5dV13mVGsgTk4JCO63Rw6kbG0B6QLE5AHmdgnBom9NziJI51g8ck59lhZ51V184omhBeb6ER8TJBdAdbRxRNHVFybEPmcC+A/TdNO1F3eRs35InkJ+7vx5YTt/9CUY0/h8=</diagram></mxfile>